Version 4
SHEET 1 680 480
SYMBOL voltage 178 133 R0
SYMATTR InstName V1
SYMATTR Value 1
FLAG 178 180 0
SYMBOL res 70 133 R0
SYMATTR InstName R1
SYMATTR Value 10k
WIRE 178 180 178 133
WIRE 86 149 86 86
WIRE 178 86 178 149
WIRE 178 86 86 86
WIRE 86 180 178 180
WIRE 86 180 86 133
