Version 4
SHEET 1 680 480
SYMBOL voltage 1380 333 R0
SYMATTR InstName V1
SYMATTR Value 1
FLAG 1150 216 r
FLAG 1380 450 0
SYMBOL res 916 200 R90
SYMATTR InstName R1
SYMATTR Value 10k
FLAG 683 216 c
SYMBOL cap 449 200 R90
SYMATTR InstName C1
SYMATTR Value 10n
FLAG 216 216 l
SYMBOL ind 798 434 R90
SYMATTR InstName L1
SYMATTR Value 5.3
FLAG 1380 216 n8
FLAG 216 450 n9
WIRE 1380 450 1380 349
WIRE 932 216 1150 216
WIRE 683 216 900 216
WIRE 465 216 683 216
WIRE 216 216 433 216
WIRE 814 450 1380 450
WIRE 1380 216 1380 317
WIRE 1380 216 1150 216
WIRE 216 450 216 216
WIRE 216 450 782 450
