Version 4
SHEET 1 680 480
SYMBOL voltage 552 133 R0
SYMATTR InstName V1
SYMATTR Value 1
FLAG 552 180 0
SYMBOL res 366 70 R90
SYMATTR InstName R1
SYMATTR Value 10k
SYMBOL cap 179 70 R90
SYMATTR InstName C1
SYMATTR Value 10n
SYMBOL ind 319 164 R90
SYMATTR InstName L1
SYMATTR Value 5.3
WIRE 552 180 552 133
WIRE 350 86 460 86
WIRE 273 86 366 86
WIRE 163 86 273 86
WIRE 86 86 179 86
WIRE 303 180 552 180
WIRE 552 86 552 149
WIRE 552 86 460 86
WIRE 86 180 86 86
WIRE 86 180 319 180
