Version 4
SHEET 1 680 480
SYMBOL voltage 1380 216 R0
SYMATTR InstName V1
SYMATTR Value 1
SYMBOL res 916 216 R0
SYMATTR InstName R1
SYMATTR Value 10k
SYMBOL cap 449 216 R0
SYMATTR InstName C1
SYMATTR Value 10n
SYMBOL ind 216 450 R0
SYMATTR InstName L1
SYMATTR Value 5.3
