Version 4
SHEET 1 680 480
SYMBOL voltage 916 446 R270
SYMATTR InstName V1
SYMATTR Value 1
FLAG 683 446 r
FLAG 1150 446 0
SYMBOL res 566 430 R90
SYMATTR InstName R1
SYMATTR Value 10k
FLAG 450 676 c
SYMBOL cap 200 446 R0
SYMATTR InstName C1
SYMATTR Value 10n
FLAG 216 216 l
SYMBOL ind 683 200 R90
SYMATTR InstName L1
SYMATTR Value 5.3
SYMBOL cap 800 660 R90
SYMATTR InstName C2
SYMATTR Value 20n
FLAG 450 446 n9
FLAG 216 676 n10
FLAG 1150 216 n11
FLAG 1150 676 n12
WIRE 683 446 916 446
WIRE 1150 446 900 446
WIRE 550 446 683 446
WIRE 216 216 216 462
WIRE 683 216 216 216
WIRE 800 676 450 676
WIRE 450 446 566 446
WIRE 450 446 450 676
WIRE 216 676 450 676
WIRE 216 676 216 446
WIRE 1150 216 1150 446
WIRE 1150 216 667 216
WIRE 1150 676 1150 446
WIRE 1150 676 784 676
