Version 4
SHEET 1 680 480
SYMBOL voltage 916 446 R270
SYMATTR InstName V1
SYMATTR Value 1
SYMBOL res 566 446 R90
SYMATTR InstName R1
SYMATTR Value 10k
SYMBOL cap 216 446 R0
SYMATTR InstName C1
SYMATTR Value 10n
SYMBOL ind 683 216 R90
SYMATTR InstName L1
SYMATTR Value 5.3
SYMBOL cap 800 676 R90
SYMATTR InstName C2
SYMATTR Value 20n
