Version 4
SHEET 1 680 480
SYMBOL voltage 916 446 R0
SYMATTR InstName V1
SYMATTR Value 1
SYMBOL res 450 446 R0
SYMATTR InstName R1
SYMATTR Value 10k
SYMBOL cap 216 676 R0
SYMATTR InstName C1
SYMATTR Value 10n
SYMBOL ind 1150 216 R0
SYMATTR InstName L1
SYMATTR Value 5.3
SYMBOL cap 1150 676 R0
SYMATTR InstName C2
SYMATTR Value 20n
