Version 4
SHEET 1 680 480
SYMBOL voltage 366 178 R270
SYMATTR InstName V1
SYMATTR Value 1
FLAG 460 178 0
SYMBOL res 164 224 R0
SYMATTR InstName R1
SYMATTR Value 10k
SYMBOL cap 70 178 R0
SYMATTR InstName C1
SYMATTR Value 10n
SYMBOL ind 273 70 R90
SYMATTR InstName L1
SYMATTR Value 5.3
SYMBOL cap 320 254 R90
SYMATTR InstName C2
SYMATTR Value 20n
WIRE 273 178 366 178
WIRE 460 178 350 178
WIRE 180 270 180 224
WIRE 86 86 86 194
WIRE 273 86 86 86
WIRE 320 270 180 270
WIRE 180 178 273 178
WIRE 180 178 180 240
WIRE 86 270 180 270
WIRE 86 270 86 178
WIRE 460 86 460 178
WIRE 460 86 257 86
WIRE 460 270 460 178
WIRE 460 270 304 270
