Version 4
SHEET 1 680 480
SYMBOL voltage 446 333 R0
SYMATTR InstName V1
SYMATTR Value 1
FLAG 216 216 vdd
FLAG 446 450 0
SYMBOL res 200 333 R0
SYMATTR InstName R1
SYMATTR Value 10k
FLAG 446 216 n4
FLAG 216 450 n5
WIRE 446 450 446 333
WIRE 216 349 216 216
WIRE 446 216 446 349
WIRE 446 216 216 216
WIRE 216 450 446 450
WIRE 216 450 216 333
