Version 4
SHEET 1 680 480
SYMBOL current 180 272 R270
SYMATTR InstName I1
SYMATTR Value 1
FLAG 273 272 0
SYMBOL res 179 348 R90
SYMATTR InstName R1
SYMATTR Value 10k
SYMBOL cap 70 179 R0
SYMATTR InstName C1
SYMATTR Value 10n
SYMBOL ind 257 180 R0
SYMATTR InstName L1
SYMATTR Value 5.3
SYMBOL cap 350 179 R0
SYMATTR InstName C2
SYMATTR Value 20n
WIRE 86 272 180 272
WIRE 273 272 164 272
WIRE 86 179 86 272
WIRE 273 180 273 272
WIRE 273 196 273 86
WIRE 86 364 86 272
WIRE 86 364 179 364
WIRE 273 364 273 272
WIRE 273 364 163 364
WIRE 86 86 86 195
WIRE 86 86 273 86
WIRE 366 272 273 272
WIRE 366 272 366 179
WIRE 366 86 273 86
WIRE 366 86 366 195
