Version 4
SHEET 1 680 480
SYMBOL current 450 680 R270
SYMATTR InstName I1
SYMATTR Value 1
FLAG 683 680 0
SYMBOL res 449 894 R90
SYMATTR InstName R1
SYMATTR Value 10k
SYMBOL cap 449 200 R90
SYMATTR InstName C1
SYMATTR Value 10n
SYMBOL ind 667 450 R0
SYMATTR InstName L1
SYMATTR Value 5.3
SYMBOL cap 900 448 R0
SYMATTR InstName C2
SYMATTR Value 20n
WIRE 216 680 450 680
WIRE 683 680 434 680
WIRE 449 910 216 680
WIRE 433 910 683 680
WIRE 683 216 433 216
WIRE 683 450 683 680
WIRE 683 466 683 216
WIRE 916 448 683 680
WIRE 916 448 683 216
WIRE 216 216 216 680
WIRE 216 216 449 216
