Version 4
SHEET 1 680 480
SYMBOL voltage 446 333 R0
SYMATTR InstName V1
SYMATTR Value 1
SYMBOL res 216 333 R0
SYMATTR InstName R1
SYMATTR Value 10k
